Version 4
SHEET 1 880 680
WIRE 48 64 -112 64
WIRE 256 64 128 64
WIRE -112 112 -112 64
WIRE 256 128 256 64
WIRE -112 240 -112 192
WIRE 256 240 256 192
FLAG -112 240 0
FLAG 256 240 0
FLAG 256 64 VD
SYMBOL diode 240 128 R0
SYMATTR InstName D1
SYMATTR Value 1N4148
SYMBOL res 144 48 R90
WINDOW 0 0 56 VBottom 2
WINDOW 3 32 56 VTop 2
SYMATTR InstName R1
SYMATTR Value 10300
SYMBOL voltage -112 96 R0
WINDOW 123 24 124 Left 2
WINDOW 39 0 0 Left 0
SYMATTR Value2 AC 1
SYMATTR InstName V1
SYMATTR Value ""
TEXT -160 328 Left 2 !;step param X list 1Meg 10Meg 100Meg
TEXT -162 348 Left 2 !;tran 0 200u 0 1u
TEXT -96 432 Left 2 !.ac dec 1000 10 1G
