Version 4
SHEET 1 920 680
WIRE 608 -224 448 -224
WIRE 752 -224 608 -224
WIRE 448 -192 448 -224
WIRE 448 -64 448 -112
WIRE 752 -48 752 -224
WIRE 448 -16 448 -64
WIRE 192 32 64 32
WIRE 336 32 272 32
WIRE 384 32 336 32
WIRE 64 112 64 32
WIRE 64 240 64 192
WIRE 448 240 448 80
WIRE 448 240 64 240
WIRE 752 240 752 32
WIRE 752 240 448 240
WIRE 448 272 448 240
FLAG 448 272 0
FLAG 608 -224 Vcc
FLAG 336 32 be
FLAG 448 -64 ce
SYMBOL voltage 64 96 R0
WINDOW 123 0 0 Left 0
WINDOW 39 0 0 Left 0
SYMATTR InstName Vin
SYMATTR Value 603.6m
SYMBOL res 432 -208 R0
SYMATTR InstName RC
SYMATTR Value 22.9k
SYMBOL res 288 16 R90
WINDOW 0 0 56 VBottom 2
WINDOW 3 32 56 VTop 2
SYMATTR InstName RB
SYMATTR Value 220
SYMBOL npn 384 -16 R0
SYMATTR InstName Q1
SYMATTR Value BC547B
SYMBOL voltage 752 -64 R0
WINDOW 123 0 0 Left 0
WINDOW 39 0 0 Left 0
SYMATTR InstName Vcc
SYMATTR Value 5
TEXT 880 80 Left 2 !;op
TEXT 48 -168 Left 2 !.dc Vcc 0 3 0.005 Vin 2u 20u 4u
